data_image0
_cell_length_a       9.905
_cell_length_b       9.905
_cell_length_c       9.905
_cell_angle_alpha    90
_cell_angle_beta     90
_cell_angle_gamma    90

_symmetry_space_group_name_H-M    "P 1"
_symmetry_int_tables_number       1

loop_
  _symmetry_equiv_pos_as_xyz
  'x, y, z'

loop_
  _atom_site_type_symbol
  _atom_site_occupancy
  _atom_site_fract_x
  _atom_site_fract_y
  _atom_site_fract_z
  _atom_site_thermal_displace_type
  _atom_site_B_iso_or_equiv
  _atom_site_label
  O     1.0000 0.25000  0.25000  0.25000  Biso   1.000  O
  O     1.0000 0.75000  0.75000  0.75000  Biso   1.000  O
  O     1.0000 0.25000  0.25000  0.75000  Biso   1.000  O
  O     1.0000 0.75000  0.75000  0.25000  Biso   1.000  O
  O     1.0000 0.75000  0.25000  0.25000  Biso   1.000  O
  O     1.0000 0.25000  0.75000  0.75000  Biso   1.000  O
  O     1.0000 0.75000  0.25000  0.75000  Biso   1.000  O
  O     1.0000 0.25000  0.75000  0.25000  Biso   1.000  O
  O     1.0000 0.18770  0.18770  0.00000  Biso   1.000  O
  O     1.0000 0.68770  0.68770  0.50000  Biso   1.000  O
  O     1.0000 0.00000  0.18770  0.18770  Biso   1.000  O
  O     1.0000 0.50000  0.68770  0.68770  Biso   1.000  O
  O     1.0000 0.18770  0.00000  0.18770  Biso   1.000  O
  O     1.0000 0.68770  0.50000  0.68770  Biso   1.000  O
  O     1.0000 0.00000  0.18770  0.81230  Biso   1.000  O
  O     1.0000 0.50000  0.68770  0.31230  Biso   1.000  O
  O     1.0000 0.18770  0.00000  0.81230  Biso   1.000  O
  O     1.0000 0.68770  0.50000  0.31230  Biso   1.000  O
  O     1.0000 0.81230  0.18770  0.00000  Biso   1.000  O
  O     1.0000 0.31230  0.68770  0.50000  Biso   1.000  O
  O     1.0000 0.81230  0.00000  0.18770  Biso   1.000  O
  O     1.0000 0.31230  0.50000  0.68770  Biso   1.000  O
  O     1.0000 0.81230  0.00000  0.81230  Biso   1.000  O
  O     1.0000 0.31230  0.50000  0.31230  Biso   1.000  O
  O     1.0000 0.18770  0.81230  0.00000  Biso   1.000  O
  O     1.0000 0.68770  0.31230  0.50000  Biso   1.000  O
  O     1.0000 0.00000  0.81230  0.18770  Biso   1.000  O
  O     1.0000 0.50000  0.31230  0.68770  Biso   1.000  O
  O     1.0000 0.00000  0.81230  0.81230  Biso   1.000  O
  O     1.0000 0.50000  0.31230  0.31230  Biso   1.000  O
  O     1.0000 0.81230  0.81230  0.00000  Biso   1.000  O
  O     1.0000 0.31230  0.31230  0.50000  Biso   1.000  O
  Si     1.0000 0.15640  0.15640  0.15640  Biso   1.000  Si
  Si     1.0000 0.65640  0.65640  0.65640  Biso   1.000  Si
  Si     1.0000 0.15640  0.15640  0.84360  Biso   1.000  Si
  Si     1.0000 0.65640  0.65640  0.34360  Biso   1.000  Si
  Si     1.0000 0.84360  0.15640  0.15640  Biso   1.000  Si
  Si     1.0000 0.34360  0.65640  0.65640  Biso   1.000  Si
  Si     1.0000 0.84360  0.15640  0.84360  Biso   1.000  Si
  Si     1.0000 0.34360  0.65640  0.34360  Biso   1.000  Si
  Si     1.0000 0.15640  0.84360  0.15640  Biso   1.000  Si
  Si     1.0000 0.65640  0.34360  0.65640  Biso   1.000  Si
  Si     1.0000 0.15640  0.84360  0.84360  Biso   1.000  Si
  Si     1.0000 0.65640  0.34360  0.34360  Biso   1.000  Si
  Si     1.0000 0.84360  0.84360  0.84360  Biso   1.000  Si
  Si     1.0000 0.34360  0.34360  0.34360  Biso   1.000  Si
  Si     1.0000 0.84360  0.84360  0.15640  Biso   1.000  Si
  Si     1.0000 0.34360  0.34360  0.65640  Biso   1.000  Si
